Version 4
SHEET 1 2012 680
WIRE 240 -176 240 -224
WIRE 240 -144 240 -176
WIRE -48 -64 -64 -64
WIRE 0 -64 -48 -64
WIRE 96 -64 80 -64
WIRE 144 -64 96 -64
WIRE 192 -64 144 -64
WIRE 640 -64 480 -64
WIRE 96 16 -64 16
WIRE 240 16 240 -48
WIRE 240 16 96 16
WIRE 304 16 240 16
WIRE 368 16 304 16
WIRE 480 16 480 -64
WIRE 480 16 432 16
WIRE 528 16 480 16
WIRE 640 16 640 -64
WIRE 640 16 608 16
WIRE 768 16 640 16
WIRE 960 16 896 16
WIRE 992 16 960 16
WIRE 1088 16 1056 16
WIRE 1152 16 1088 16
WIRE 1296 16 1152 16
WIRE 1344 16 1296 16
WIRE 1152 48 1152 16
WIRE 896 112 896 96
WIRE 944 112 896 112
WIRE 240 128 240 16
WIRE 944 144 944 112
WIRE 944 144 896 144
WIRE 1152 144 1152 112
WIRE 1152 144 944 144
WIRE 1200 144 1152 144
WIRE 1248 144 1200 144
WIRE 1344 144 1344 96
WIRE 1344 144 1248 144
WIRE 1200 160 1200 144
WIRE 1248 192 1248 144
WIRE -48 208 -64 208
WIRE 0 208 -48 208
WIRE 96 208 80 208
WIRE 160 208 96 208
WIRE 192 208 160 208
WIRE 896 240 896 224
WIRE 976 240 896 240
WIRE 992 240 976 240
WIRE 1088 240 1088 16
WIRE 1088 240 1056 240
WIRE 96 288 -64 288
WIRE 240 288 240 224
WIRE 240 288 96 288
WIRE 768 288 768 96
WIRE 768 288 240 288
WIRE 240 304 240 288
FLAG 240 304 0
FLAG 240 -304 0
FLAG 1296 16 Vout
FLAG 144 -64 Vhi_g
FLAG 160 208 Vlo_g
FLAG 304 16 Vmid
FLAG -48 -64 Vhp
FLAG -48 208 Vlp
FLAG 240 -176 Vsup
FLAG 1200 160 0
FLAG 960 16 Vt+
FLAG 976 240 Vt-
SYMBOL res 1328 0 R0
SYMATTR InstName R1
SYMATTR Value 10k
SYMBOL voltage 240 -208 R180
WINDOW 123 0 0 Left 0
WINDOW 39 24 -12 Left 2
WINDOW 3 -48 17 Left 2
SYMATTR SpiceLine Rser=0.01 Cpar=0.1u
SYMATTR Value 30
SYMATTR InstName V1
SYMBOL voltage -64 192 R0
WINDOW 0 -12 58 Left 2
WINDOW 3 -287 -53 Left 2
WINDOW 123 0 0 Left 0
WINDOW 39 0 0 Left 0
SYMATTR InstName V2
SYMATTR Value PULSE(0 5 {Ton} 16n 16n {Tonlow} {Tperiod})
SYMBOL res 96 -80 R90
WINDOW 0 0 56 VBottom 2
WINDOW 3 32 56 VTop 2
SYMATTR InstName R2
SYMATTR Value 100
SYMBOL res 96 192 R90
WINDOW 0 0 56 VBottom 2
WINDOW 3 32 56 VTop 2
SYMATTR InstName R3
SYMATTR Value 100
SYMBOL res 80 -80 R0
SYMATTR InstName R4
SYMATTR Value 10k
SYMBOL res 80 192 R0
SYMATTR InstName R5
SYMATTR Value 10k
SYMBOL polcap 432 0 R90
WINDOW 3 32 32 VTop 2
WINDOW 0 0 32 VBottom 2
SYMATTR Value {Cr}
SYMATTR InstName C1
SYMATTR Description Capacitor
SYMATTR Type cap
SYMATTR SpiceLine V=100 Irms=1.88 Rser=0.013 Lser=6.47n mfg="Würth Elektronik" pn="860040880011 WCAP-ATUL 16x35,5" type="Al electrolytic"
SYMBOL ind 512 32 R270
WINDOW 0 37 56 VTop 2
WINDOW 3 89 58 VBottom 2
SYMATTR InstName L2
SYMATTR Value {Lr}
SYMATTR SpiceLine Ipk=17.2 Rser=0.01313 Rpar=21316 Cpar=20.57p mfg="Würth Elektronik" pn="7443783533650 WE-HCFT 3533"
SYMBOL voltage -64 -80 R0
WINDOW 0 -16 61 Left 2
WINDOW 3 -254 124 Left 2
WINDOW 123 0 0 Left 0
WINDOW 39 0 0 Left 0
SYMATTR InstName V3
SYMATTR Value PULSE(0 5 0 16n 16n {Ton} {Tperiod})
SYMBOL voltage 1344 192 R90
WINDOW 0 -12 43 VRight 2
WINDOW 3 68 25 VRight 2
WINDOW 123 0 0 Left 0
WINDOW 39 40 -25 VRight 2
SYMATTR InstName V4
SYMATTR Value 10.4
SYMATTR SpiceLine Rser=.01 Cpar=0.1u
SYMBOL nmos 192 -144 R0
SYMATTR InstName Q2
SYMATTR Value IRFH5207
SYMBOL nmos 192 128 R0
SYMATTR InstName Q3
SYMATTR Value IRFH5207
SYMBOL ind 624 0 R0
WINDOW 0 -29 62 Left 2
WINDOW 3 -51 91 Left 2
SYMATTR InstName L1
SYMATTR Value {Lm}
SYMATTR SpiceLine Ipk=2.64 Rser=0.353 Rpar=34207.5 Cpar=0 mfg="Bourns, Inc." pn="SRF1280-470M-series"
SYMBOL diode 992 0 M90
WINDOW 0 0 32 VBottom 2
WINDOW 3 32 32 VTop 2
SYMATTR InstName D1
SYMBOL diode 992 224 M90
WINDOW 0 0 32 VBottom 2
WINDOW 3 32 32 VTop 2
SYMATTR InstName D2
SYMBOL polcap 1136 48 R0
SYMATTR Value 0.04µ
SYMATTR InstName C2
SYMATTR Description Capacitor
SYMATTR Type cap
SYMATTR SpiceLine V=100 Irms=1.88 Rser=0.013 Lser=6.47n mfg="Würth Elektronik" pn="860040880011 WCAP-ATUL 16x35,5" type="Al electrolytic"
SYMBOL ind2 752 112 M180
WINDOW 0 -50 74 Left 2
WINDOW 3 -56 40 Left 2
SYMATTR InstName LP1
SYMATTR Value {Lp}
SYMATTR Type ind
SYMBOL ind2 912 112 R180
WINDOW 0 -48 74 Left 2
WINDOW 3 -56 46 Left 2
SYMATTR InstName LS1
SYMATTR Value {Ls}
SYMATTR Type ind
SYMBOL ind2 912 240 R180
WINDOW 0 -51 65 Left 2
WINDOW 3 -63 40 Left 2
SYMATTR InstName LS2
SYMATTR Value {Ls}
SYMATTR Type ind
TEXT 432 -280 Left 2 !.tran 0.1ms startup
TEXT 704 -320 Left 2 !K1 LP1 LS1 LS2 0.99\n.param Lp=1u\n.param Rt=23\n.param Ls=Lp*PWR(Rt,2)\n.param Cr=4u\n.param Lr=15u\n.param Lm=134u\n.param SwFreq=200k\n.param Tperiod=1/SwFreq\n.param Ton=Tperiod*0.5\n.param Tonlow=Tperiod-Ton
